 &time_control
 run_days                            = 0,
 run_hours                           = 6,
 run_minutes                         = 0,
 run_seconds                         = 0,
 start_year                          = 2021, 2021, 2021,
 start_month                         = 01,   01,   01,
 start_day                           = 23,   23,   23,
 start_hour                          = 00,   00,   00,
 start_minute                        = 00,   00,   00,
 start_second                        = 00,   00,   00,
 end_year                            = 2021, 2021, 2021,
 end_month                           = 01,   01,   01,
 end_day                             = 23,   23,   23,
 end_hour                            = 06,   06,   06,
 end_minute                          = 00,   00,   00,
 end_second                          = 00,   00,   00,
 interval_seconds                    = 10800
 input_from_file                     = .true.,.true.,.true.,
 fine_input_stream                   = 0,    2,    2,
 io_form_auxinput2                   = 2
 history_interval                    = 60,  60,   60,
 frames_per_outfile                  = 1000, 1000, 1000,
 restart                             = .false.,
 restart_interval                    = 5000,
 io_form_history                     = 2
 io_form_restart                     = 2
 io_form_input                       = 2
 io_form_boundary                    = 2
 debug_level                         = 0
 write_input                         = .true.,
 inputout_interval                   = 0,     0,    0,
 inputout_begin_h                    = 6,     6,    6,
 inputout_end_h                      = 6,     6,    6,
 input_outname="wrfdainput_d<domain>_<date>",
 /

 &domains
 time_step                           = 135,
 time_step_fract_num                 = 0,
 time_step_fract_den                 = 1,
 max_dom                             = 1,
 e_we                                = 355,  799,    499,
 e_sn                                = 300,  661,    511,
 e_vert                              = 48,    48,    48,
 p_top_requested                     = 1000,
 num_metgrid_levels                  = 34,
 num_metgrid_soil_levels             = 4,
 dx                                  = 27000, 9000, 3000,
 dy                                  = 27000, 9000, 3000,
 grid_id                             = 1,     2,     3,
 parent_id                           = 0,     1,     2,
 i_parent_start                      = 1,     45,    470,
 j_parent_start                      = 1,     40,    310,
 parent_grid_ratio                   = 1,     3,     3,
 parent_time_step_ratio              = 1,     3,     3,
 feedback                            = 1,
 smooth_option                       = 2
 /
 !num_metgrid_levels                  = 32,
 !num_land_cat                        = 24,

 !mp_physics                          = 10,    10,     3, ! morrison = 10
 !mp_physics                          = 16,   16,     3, ! WDM6 = 16

 &physics
 mp_physics                          = 8,     8,     8, ! thompson = 8
 ra_lw_physics                       = 4,     4,     4, ! recommended by cycch
 ra_sw_physics                       = 4,     4,     4,
 radt                                = 27,    9,     3,
 sf_sfclay_physics                   = 1,     1,     1,
 sf_surface_physics                  = 2,     2,     2,
 bl_pbl_physics                      = 1,     1,     1,
 bldt                                = 0,     0,     0,
 cu_physics                          = 3,     3,     0,
 cudt                                = 5,     5,     5,
 isfflx                              = 1,
 ifsnow                              = 1,
 icloud                              = 1,
 surface_input_source                = 1,
 num_soil_layers                     = 4,
 sf_urban_physics                    = 0,     0,     0,
 /

 &fdda
 /

 &dynamics
 hybrid_opt                          = 0
 w_damping                           = 0,
 diff_opt                            = 1,      1,      1,
 km_opt                              = 4,      4,      4,
 diff_6th_opt                        = 0,      0,      0,
 diff_6th_factor                     = 0.12,   0.12,   0.12,
 base_temp                           = 290.
 damp_opt                            = 0,
 zdamp                               = 5000.,  5000.,  5000.,
 dampcoef                            = 0.2,    0.2,    0.2
 khdif                               = 0,      0,      0,
 kvdif                               = 0,      0,      0,
 non_hydrostatic                     = .true., .true., .true.,
 moist_adv_opt                       = 1,      1,      1,
 scalar_adv_opt                      = 1,      1,      1,
 use_theta_m                         = 0
 /
 hybrid_opt                          = 0 ! use the old TFC vert coord
 hybrid_opt                          = 2 ! default
 use_theta_m                         = 0 ! Turn it off for use with WRFDAv4.0.1 (Jamie)

 &bdy_control
 spec_bdy_width                      = 5,
 spec_zone                           = 1,
 relax_zone                          = 4,
 specified                           = .true., .false.,.false.,
 nested                              = .false., .true., .true.,
 /

 &grib2
 /

 &namelist_quilt
 nio_tasks_per_group = 0,
 nio_groups = 1,
 /

