&time_control
 START_YEAR                          = START_YEAR,
 START_MONTH                         = START_MONTH,
 START_DAY                           = START_DAY,
 START_HOUR                          = START_HOUR,
 START_MINUTE                        = START_MINUTE,
 START_SECOND                        = START_SECOND,
 END_YEAR                            = END_YEAR,
 END_MONTH                           = END_MONTH,
 END_DAY                             = END_DAY,
 END_HOUR                            = END_HOUR,
 END_MINUTE                          = END_MINUTE,
 END_SECOND                          = END_SECOND,
 INTERVAL_SECONDS                    = INTERVAL_SECONDS,
 input_from_file                     = .true., .true.,
 ! Interpolates the ICs for the nest from the parent domain when =2 below, 0 for ICs from file !
 fine_input_stream                   = 2,
 HISTORY_INTERVAL                    = HISTORY_INTERVAL,
 history_outname                     = "./wrfout_d<domain>_<date>",
 io_form_history                     = 2,
 frames_per_outfile                  = 1, 1, 1,
 RESTART                             = RESTART,
 ! NOTE: this setting is needed to set the restart interval from the namelist settings alone !
 override_restart_timers             = .true.,
 RESTART_INTERVAL                    = RESTART_INTERVAL,
 rst_inname                          = "./wrfrst_d<domain>_<date>",
 rst_outname                         = "./wrfrst_d<domain>_<date>",
 io_form_restart                     = 2,
 input_inname                        = "wrfinput_d<domain>",
 input_outname                       = "wrfinput_d<domain>",
 io_form_input                       = 2,
 bdy_inname                          = "./wrfbdy_d<domain>",
 bdy_outname                         = "./wrfbdy_d<domain>",
 io_form_boundary                    = 2,
 auxinput1_inname                    = "./met_em.d<domain>.<date>"
 io_form_auxinput1                   = 2,
 AUXHIST2_INTERVAL                   = AUXHIST2_INTERVAL,
 auxhist2_outname                    = "./auxhist2_<domain>_<date>",
 frames_per_auxhist2                 = 1, 1, 1,
 io_form_auxinput2		     = 2,
 io_form_auxhist2                    = 2,
 auxinput4_inname                    = "./wrflowinp_d<domain>",
 auxinput4_outname                   = "./wrflowinp_d<domain>",
 AUXINPUT4_INTERVAL                  = AUXINPUT4_INTERVAL,
 io_form_auxinput4                   = 2,
 debug_level                         = 0,
 diag_print			     = 1,
 nocolons                            = .true.,
/

!! will output solar zenith angle + cloud base + cloud top height with this turned on !
!&diags
! solar_diagnostics = 1,
!/

&domains
 time_step                           = 45,
 starting_time_step                  = 36,     12,
 max_time_step                       = 81,     27,
 min_time_step                       = 9,      3,
 target_cfl                          = 1.28,   1.28,
 target_hcfl			     = 0.9,  0.9,
 use_adaptive_time_step              = .true.
 step_to_output_time		     = .true.
 max_step_increase_pct		     = 25,   25,
 adaptation_domain		     = 1,
 time_step_fract_num                 = 0,
 time_step_fract_den                 = 1,
 MAX_DOM                             = MAX_DOM,
 e_vert                              = 80,   80,
 p_top_requested                     = 1000,
 !! GEFS setting AWS pre 2021 !!
 !num_metgrid_levels                  = 27,
 !! GEFS setting AWS 2021 on !!
 num_metgrid_levels                  = 32,
 !! GEFS setting for TIGGE !!
 !num_metgrid_levels                  = 9,
 !! Default value, works for GFS and ERA5 !!
 num_metgrid_soil_levels             = 4,
 dx                                  = 9000, 3000,
 dy                                  = 9000, 3000,
 grid_id                             = 1,    2,
 parent_id                           = 1,    1,
 parent_grid_ratio                   = 1,    3,
 i_parent_start                      = 1,    595,
 j_parent_start                      = 1,    210,
 e_we                                = 965,  901,
 e_sn                                = 700,  781,
 parent_time_step_ratio              = 1, 3,
 FEEDBACK                            = FEEDBACK
 smooth_option                       = 2
/

&physics
 mp_physics                          = 8,     8,
 ra_lw_physics                       = 4,     4,
 ra_sw_physics                       = 4,     4,
 radt                                = 9,     3,
 sf_sfclay_physics                   = 5,     5,
 sf_surface_physics                  = 4,     4,
 bl_pbl_physics                      = 5,     5,
 bldt                                = 0,     0,
 cu_physics                          = 3,     0,
 cu_rad_feedback                     = .true., .false.,
 cu_diag                             = 1,     0,
 cudt                                = 0,     0,
 ishallow                            = 0,
 isfflx                              = 1,
 ifsnow                              = 1,
 icloud                              = 3,
 surface_input_source                = 1,
 sf_urban_physics                    = 0,     0,
 do_radar_ref                        = 1,
 prec_acc_dt                         = 60.,   60.,
 grav_settling                       = 0, 0,
 ysu_topdown_pblmix                  = 1,
 sst_skin			     = 0,
 SST_UPDATE                          = SST_UPDATE,
 usemonalb                           = .true.,
 rdlai2d                             = .true.,
 num_land_cat			     = 21,
 num_soil_cat			     = 16,
 num_soil_layers                     = 4,
/

&noah_mp
 dveg                               = 2,
 opt_crs                            = 1,
 opt_sfc                            = 1,
 opt_btr                            = 1,
 opt_run                            = 1,
 opt_frz                            = 1,
 opt_inf                            = 1,
 opt_rad                            = 1,
 opt_alb                            = 2,
 opt_snf                            = 1,
 opt_tbot                           = 2,
 opt_stc                            = 1,
 opt_gla                            = 1,
 opt_rsf                            = 1,
 opt_soil                           = 1,
 opt_crop                           = 0
/

&dynamics
 hybrid_opt                          = 2,
 w_damping                           = 1,
 diff_opt                            = 1, 1,
 km_opt                              = 4, 4,
 diff_6th_opt                        = 0, 0,
 diff_6th_factor                     = 0.12, 0.12,
 base_temp                           = 290.,
 damp_opt                            = 3,
 zdamp                               = 5000., 5000.,
 dampcoef                            = 0.2, 0.2,
 khdif                               = 0, 0,
 kvdif                               = 0, 0,
 non_hydrostatic                     = .true., .true.,
 moist_adv_opt                       = 1, 1,
 scalar_adv_opt                      = 1, 1,
 epssm                               = 0.2, 0.2
/

&bdy_control
 spec_bdy_width                      = 10,
 spec_zone                           = 1,
 relax_zone                          = 9,
 specified                           = .true., .false.,
 nested                              = .false., .true.,
/

&grib2
/

&namelist_quilt
 NIO_TASKS_PER_GROUP = NIO_TASKS_PER_GROUP,
 NIO_GROUPS = NIO_GROUPS,
/
